* DIODES INCORPORATED AND ITS AFFILIATED COMPANIES AND SUBSIDIARIES (COLLECTIVELY, "DIODES") 
* PROVIDE THESE SPICE MODELS AND DATA (COLLECTIVELY, THE "SM DATA") "AS IS" AND WITHOUT ANY 
* REPRESENTATIONS OR WARRANTIES, EXPRESS OR IMPLIED, INCLUDING ANY WARRANTY OF MERCHANTABILITY 
* OR FITNESS FOR A PARTICULAR PURPOSE, ANY WARRANTY ARISING FROM COURSE OF DEALING OR COURSE OF 
* PERFORMANCE, OR ANY WARRANTY THAT ACCESS TO OR OPERATION OF THE SM DATA WILL BE UNINTERRUPTED, 
* OR THAT THE SM DATA OR ANY SIMULATION USING THE SM DATA WILL BE ERROR FREE. TO THE MAXIMUM 
* EXTENT PERMITTED BY LAW, IN NO EVENT WILL DIODES BE LIABLE FOR ANY DIRECT OR INDIRECT, 
* SPECIAL, INCIDENTAL, PUNITIVE OR CONSEQUENTIAL DAMAGES ARISING OUT OF OR IN CONNECTION WITH 
* THE PRODUCTION OR USE OF SM DATA, HOWEVER CAUSED AND UNDER WHATEVER CAUSE OF ACTION OR THEORY 
* OF LIABILITY BROUGHT (INCLUDING, WITHOUT LIMITATION, UNDER ANY CONTRACT, NEGLIGENCE OR OTHER 
* TORT THEORY OF LIABILITY), EVEN IF DIODES HAS BEEN ADVISED OF THE POSSIBILITY OF SUCH DAMAGES, 
* AND DIODES' TOTAL LIABILITY (WHETHER IN CONTRACT, TORT OR OTHERWISE) WITH REGARD TO THE SM 
* DATA WILL NOT, IN THE AGGREGATE, EXCEED ANY SUMS PAID BY YOU TO DIODES FOR THE SM DATA.



*---------- AL5817 Spice Model ----------

**$ENCRYPTED_LIB
**$INTERFACE
.SUBCKT BEHAV_BUF1 A VDD VSS Y
$CDNENCSTART_ADV2
17f62b1fb318c25603aeb85644ae98a5d179ef807807791f6459efacb9d7ffc35a73a37243d4cce46a460e928d7c8f9c39ee99122a9d3f96f7d47fafa32ba578
c66a114150ca33a6f5231233f053c9dd6077121917a50b4bd57c6770d0fc453c15f3562240d05332a07061caa5be791a07fbc48ed1da5b20a17c83e9a14b93cd
33ed0726e81b980aaf1fab88ee9e1c125990712c8ab82c757cdbfbba993f6c801fae1fe4462b868412423be1f3182cc4fe5258584c170fcb5fdfaf98add13905
e111c2a7aec3e4088342a6a17f7d3ef1720ecb8a7413268a9693e3ed8af8399d2de83347514cc3b92a40379545cfd5fc06107970348240fef3b7e779b362fa17
c7cca2b54f8db9e8b051361d1ff287f17d13b63fd4166db0c5938fe09ada1604de78dff9bfcad1fe8e9bedca6029d2c651a4b925629e624ec8cac3ae47d95c94
1d3b21f0c5cfb1ec3c523f2ab24bba46d1fa1e35af1321f41859c5cc3a25a340dfcae993d00df03c4d28e920212eb37e7a44b58a000d16e60c7c465ae78bfb49
$CDNENCFINISH_ADV2
.ENDS BEHAV_BUF1


.SUBCKT BEHAV_BUF2 A VDD VSS Y
$CDNENCSTART_ADV2
17f62b1fb318c25603aeb85644ae98a5d179ef807807791f6459efacb9d7ffc35a73a37243d4cce46a460e928d7c8f9c39ee99122a9d3f96f7d47fafa32ba578
c66a114150ca33a6f5231233f053c9dd6077121917a50b4bd57c6770d0fc453c15f3562240d05332a07061caa5be791a07fbc48ed1da5b20a17c83e9a14b93cd
33ed0726e81b980aaf1fab88ee9e1c125990712c8ab82c757cdbfbba993f6c801fae1fe4462b868412423be1f3182cc4fe5258584c170fcb5fdfaf98add13905
e111c2a7aec3e4088342a6a17f7d3ef1720ecb8a7413268a9693e3ed8af8399d94ff6b9ee480626ac4940e12d3d63c8606107970348240fef3b7e779b362fa17
c7cca2b54f8db9e8b051361d1ff287f17d13b63fd4166db0c5938fe09ada1604de78dff9bfcad1fe8e9bedca6029d2c651a4b925629e624ec8cac3ae47d95c94
1d3b21f0c5cfb1ec3c523f2ab24bba46d1fa1e35af1321f41859c5cc3a25a340dfcae993d00df03c4d28e920212eb37e7a44b58a000d16e60c7c465ae78bfb49
$CDNENCFINISH_ADV2
.ENDS BEHAV_BUF2


.SUBCKT BEHAV_INV A VDD VSS Y
$CDNENCSTART_ADV2
17f62b1fb318c25603aeb85644ae98a5d179ef807807791f6459efacb9d7ffc35a73a37243d4cce46a460e928d7c8f9c39ee99122a9d3f96f7d47fafa32ba578
c66a114150ca33a6f5231233f053c9dd6077121917a50b4bd57c6770d0fc453c15f3562240d05332a07061caa5be791a07fbc48ed1da5b20a17c83e9a14b93cd
5d629801781c626bdb78108f94ac77355990712c8ab82c757cdbfbba993f6c801fae1fe4462b868412423be1f3182cc4fe5258584c170fcb5fdfaf98add13905
e111c2a7aec3e4088342a6a17f7d3ef1720ecb8a7413268a9693e3ed8af8399d71b773df1858f1bcc713e037d3d60749ba13f6455bf5a70d9dd007915e0f941c
c7cca2b54f8db9e8b051361d1ff287f17d13b63fd4166db0c5938fe09ada1604de78dff9bfcad1fe8e9bedca6029d2c651a4b925629e624ec8cac3ae47d95c94
1d3b21f0c5cfb1ec3c523f2ab24bba46d1fa1e35af1321f41859c5cc3a25a340dfcae993d00df03c4d28e920212eb37e7a44b58a000d16e60c7c465ae78bfb49
$CDNENCFINISH_ADV2
.ENDS BEHAV_INV


.SUBCKT BEHAV_AND2 A B VDD VSS Y
$CDNENCSTART_ADV2
17f62b1fb318c25603aeb85644ae98a5d179ef807807791f6459efacb9d7ffc35a73a37243d4cce46a460e928d7c8f9c39ee99122a9d3f96f7d47fafa32ba578
c66a114150ca33a6f5231233f053c9dd6077121917a50b4bd57c6770d0fc453c15f3562240d05332a07061caa5be791a07fbc48ed1da5b20a17c83e9a14b93cd
7f4d8d07b48671743da119f00e2978a3fc6b74ccb3c944ab337ed0baf91e23f00ec9342b51dbdf9c0890e73633d2a0bdcb8974ea1c77f981da4fbdc9c587f18a
e111c2a7aec3e4088342a6a17f7d3ef1720ecb8a7413268a9693e3ed8af8399ddfba758f91fcea919c2fc6e258395e7806107970348240fef3b7e779b362fa17
c7cca2b54f8db9e8b051361d1ff287f17d13b63fd4166db0c5938fe09ada1604de78dff9bfcad1fe8e9bedca6029d2c651a4b925629e624ec8cac3ae47d95c94
1d3b21f0c5cfb1ec3c523f2ab24bba46d1fa1e35af1321f41859c5cc3a25a340dfcae993d00df03c4d28e920212eb37e7a44b58a000d16e60c7c465ae78bfb49
$CDNENCFINISH_ADV2
.ENDS BEHAV_AND2


.SUBCKT BEHAV_AND3 A B C VDD VSS Y
$CDNENCSTART_ADV2
17f62b1fb318c25603aeb85644ae98a5d179ef807807791f6459efacb9d7ffc35a73a37243d4cce46a460e928d7c8f9c39ee99122a9d3f96f7d47fafa32ba578
c66a114150ca33a6f5231233f053c9dd6077121917a50b4bd57c6770d0fc453c15f3562240d05332a07061caa5be791a07fbc48ed1da5b20a17c83e9a14b93cd
7f4d8d07b48671743da119f00e2978a3d1790686e076b08693c8ff1dec3e6e8c70d3542cb93be080db380e2d2708d3e25a0d99e261a09323363d4c4b7d35056c
e111c2a7aec3e4088342a6a17f7d3ef1720ecb8a7413268a9693e3ed8af8399d71b773df1858f1bcc713e037d3d60749ba13f6455bf5a70d9dd007915e0f941c
c7cca2b54f8db9e8b051361d1ff287f17d13b63fd4166db0c5938fe09ada1604de78dff9bfcad1fe8e9bedca6029d2c651a4b925629e624ec8cac3ae47d95c94
1d3b21f0c5cfb1ec3c523f2ab24bba46d1fa1e35af1321f41859c5cc3a25a340dfcae993d00df03c4d28e920212eb37e7a44b58a000d16e60c7c465ae78bfb49
$CDNENCFINISH_ADV2
.ENDS BEHAV_AND3


.SUBCKT BEHAV_OR2 A B VDD VSS Y
$CDNENCSTART_ADV2
17f62b1fb318c25603aeb85644ae98a5d179ef807807791f6459efacb9d7ffc35a73a37243d4cce46a460e928d7c8f9c39ee99122a9d3f96f7d47fafa32ba578
c66a114150ca33a6f5231233f053c9dd6077121917a50b4bd57c6770d0fc453cdb68bdf439757a0c9a7c1894cf1b55648c8732fd7f98aa88e0dd3534776ff93c
044ecc750a360c43afc194cf53601f2ed487824ccd0b53225aaa56ab9f7974dc621f3f3628f82a9fc476e2b4bbffe1f22d984e386040445165673abad035966c
e111c2a7aec3e4088342a6a17f7d3ef1720ecb8a7413268a9693e3ed8af8399d71b773df1858f1bcc713e037d3d60749ba13f6455bf5a70d9dd007915e0f941c
c7cca2b54f8db9e8b051361d1ff287f17d13b63fd4166db0c5938fe09ada1604de78dff9bfcad1fe8e9bedca6029d2c651a4b925629e624ec8cac3ae47d95c94
1d3b21f0c5cfb1ec3c523f2ab24bba46d1fa1e35af1321f41859c5cc3a25a340dfcae993d00df03c4d28e920212eb37e7a44b58a000d16e60c7c465ae78bfb49
$CDNENCFINISH_ADV2
.ENDS BEHAV_OR2


.SUBCKT BEHAV_OR3 A B C VDD VSS Y
$CDNENCSTART_ADV2
17f62b1fb318c25603aeb85644ae98a5d179ef807807791f6459efacb9d7ffc35a73a37243d4cce46a460e928d7c8f9c39ee99122a9d3f96f7d47fafa32ba578
c66a114150ca33a6f5231233f053c9dd6077121917a50b4bd57c6770d0fc453cdb68bdf439757a0c9a7c1894cf1b55648c8732fd7f98aa88e0dd3534776ff93c
044ecc750a360c43afc194cf53601f2ef705a313234ef2ac69f00207be49bd4fe2e75f02732662a3bab2964381a09c7bf54cab319c4c35867fd226a08bc6a7cf
e7e12e1ec9c5f1ff144d6bca4c38b5c5e9d5a56d01cb61b4094d18d8a18bc27433015a39f64615ad8ea79cf613e6c53c4688728a85083d3582fd982e773c87ce
e111c2a7aec3e4088342a6a17f7d3ef1720ecb8a7413268a9693e3ed8af8399d71b773df1858f1bcc713e037d3d60749ba13f6455bf5a70d9dd007915e0f941c
c7cca2b54f8db9e8b051361d1ff287f17d13b63fd4166db0c5938fe09ada1604de78dff9bfcad1fe8e9bedca6029d2c651a4b925629e624ec8cac3ae47d95c94
1d3b21f0c5cfb1ec3c523f2ab24bba46d1fa1e35af1321f41859c5cc3a25a340dfcae993d00df03c4d28e920212eb37e7a44b58a000d16e60c7c465ae78bfb49
$CDNENCFINISH_ADV2
.ENDS BEHAV_OR3


.SUBCKT BEHAV_NOR3 A B C VDD VSS Y
$CDNENCSTART_ADV2
17f62b1fb318c25603aeb85644ae98a5d179ef807807791f6459efacb9d7ffc35a73a37243d4cce46a460e928d7c8f9c39ee99122a9d3f96f7d47fafa32ba578
c66a114150ca33a6f5231233f053c9dd6077121917a50b4bd57c6770d0fc453cd2ee294236473d04ab80823c30c2eba475189bbe04437c3e128683207208874c
4450fddf121883dcd64f79297fed85272ddcf90744eaffa673d4e33266d316a6e4697bcf19702e4526a066b33186371526102d81423512eb4c5b73aece5d80b7
f85b0d35e5753b171be5b1a0e22b0436dfcae993d00df03c4d28e920212eb37e74a23faad1e6049404811c1bbc1220edd9efccfff1f7a56e5fb67408ac65a734
e111c2a7aec3e4088342a6a17f7d3ef107c732bae18662950d6dc717e77f61124ef85bcd13c9337707298003142483f406107970348240fef3b7e779b362fa17
c7cca2b54f8db9e8b051361d1ff287f17d13b63fd4166db0c5938fe09ada1604de78dff9bfcad1fe8e9bedca6029d2c651a4b925629e624ec8cac3ae47d95c94
1d3b21f0c5cfb1ec3c523f2ab24bba46d1fa1e35af1321f41859c5cc3a25a340dfcae993d00df03c4d28e920212eb37e7a44b58a000d16e60c7c465ae78bfb49
$CDNENCFINISH_ADV2
.ENDS BEHAV_NOR3


.SUBCKT BEHAV_BGAP_noLoad1 VDD VSS VBG EN
$CDNENCSTART_ADV2
17f62b1fb318c25603aeb85644ae98a5d179ef807807791f6459efacb9d7ffc35a73a37243d4cce46a460e928d7c8f9c39ee99122a9d3f96f7d47fafa32ba578
c66a114150ca33a6f5231233f053c9dd6077121917a50b4bd57c6770d0fc453c2eb9a2eec370c560fb46a83190ad82f4917e92b26114e98ed89a0f009cb49a8d
e111c2a7aec3e4088342a6a17f7d3ef1720ecb8a7413268a9693e3ed8af8399d6208d1d3e5f37eab17e1cf717e8a4531ba13f6455bf5a70d9dd007915e0f941c
d8ff0f1929cd0c688b750b76b0558297b4d398a037aa7a803faf0102f99e1547656fdd745998b16eeec50d1ca0e27ae43c5bac3cfdaec4b29506375326ee5471
7739cf2ef0fc7689c875093c477e059e06d9f011a9d3e50e4c53c1bdb7b27dca8ca607973acc8024f922e549e4aff01ddb1920fd8bf847aeeccf404e7c3f59eb
1d3b21f0c5cfb1ec3c523f2ab24bba46820d386f140d99c0afce23ce5081bed98008e35f20cad0ba12003889b2de10d6e5073942ac4d27bc843368d2fbf0796e
$CDNENCFINISH_ADV2
.ENDS BEHAV_BGAP_noLoad1


.SUBCKT BEHAV_BGAP_DEN VDD VSS VBG EN
$CDNENCSTART_ADV2
17f62b1fb318c25603aeb85644ae98a5d179ef807807791f6459efacb9d7ffc35a73a37243d4cce46a460e928d7c8f9c39ee99122a9d3f96f7d47fafa32ba578
c66a114150ca33a6f5231233f053c9dd6077121917a50b4bd57c6770d0fc453c2e7858dafabf06dd2675764994eeb5a09595c3b3e2cb3a11ae9dda3c8ae7e596
e111c2a7aec3e4088342a6a17f7d3ef1720ecb8a7413268a9693e3ed8af8399d6208d1d3e5f37eab17e1cf717e8a4531ba13f6455bf5a70d9dd007915e0f941c
d8ff0f1929cd0c688b750b76b0558297b4d398a037aa7a803faf0102f99e1547656fdd745998b16eeec50d1ca0e27ae43c5bac3cfdaec4b29506375326ee5471
7739cf2ef0fc7689c875093c477e059e06d9f011a9d3e50e4c53c1bdb7b27dca8ca607973acc8024f922e549e4aff01ddb1920fd8bf847aeeccf404e7c3f59eb
1d3b21f0c5cfb1ec3c523f2ab24bba46820d386f140d99c0afce23ce5081bed98008e35f20cad0ba12003889b2de10d62786e30c0a7d5acceb868d9feba803d3
$CDNENCFINISH_ADV2
.ENDS BEHAV_BGAP_DEN


.SUBCKT BEHAV_BGAP_noLoad2 VDD VSS VBG
$CDNENCSTART_ADV2
17f62b1fb318c25603aeb85644ae98a5d179ef807807791f6459efacb9d7ffc35a73a37243d4cce46a460e928d7c8f9c39ee99122a9d3f96f7d47fafa32ba578
c66a114150ca33a6f5231233f053c9dd6077121917a50b4bd57c6770d0fc453c2eb9a2eec370c560fb46a83190ad82f4917e92b26114e98ed89a0f009cb49a8d
e111c2a7aec3e4088342a6a17f7d3ef1e24309e7da15e27f1e3f72ae456a0fc567ed543c25490bd934a741e8e3cc2104ba13f6455bf5a70d9dd007915e0f941c
d8ff0f1929cd0c688b750b76b0558297b4d398a037aa7a803faf0102f99e1547656fdd745998b16eeec50d1ca0e27ae43c5bac3cfdaec4b29506375326ee5471
7739cf2ef0fc7689c875093c477e059e06d9f011a9d3e50e4c53c1bdb7b27dca8ca607973acc8024f922e549e4aff01ddb1920fd8bf847aeeccf404e7c3f59eb
1d3b21f0c5cfb1ec3c523f2ab24bba46d99732c2f3b0c1aaedcda9f387fb067b3a93452ef821ac1c875af808fe2d74038b6caf53d786247860bb1a1227620c68
$CDNENCFINISH_ADV2
.ENDS BEHAV_BGAP_noLoad2


.SUBCKT BEHAV_IBIAS VDD VSS IB
$CDNENCSTART_ADV2
17f62b1fb318c25603aeb85644ae98a5d179ef807807791f6459efacb9d7ffc35a73a37243d4cce46a460e928d7c8f9c39ee99122a9d3f96f7d47fafa32ba578
c66a114150ca33a6f5231233f053c9dd6077121917a50b4bd57c6770d0fc453c2eb9a2eec370c560fb46a83190ad82f4917e92b26114e98ed89a0f009cb49a8d
e111c2a7aec3e4088342a6a17f7d3ef1a9c0ac848c277c25d5454e9eb4f74e60ddf3b3752d4ccde4d6757bfac80e775701df65f12242c198d641aa179ca8c82e
7739cf2ef0fc7689c875093c477e059e06d9f011a9d3e50e4c53c1bdb7b27dca8ca607973acc8024f922e549e4aff01ddb1920fd8bf847aeeccf404e7c3f59eb
82415293653b1eadb1ddc53673e62ed28c0473af8ac1a2284e51ac7db1e54742e61d088c70436c7a67f7a4d4e1f712eb77f7caf506f7e0d28319ee03ec4b00e0
1d3b21f0c5cfb1ec3c523f2ab24bba46d99732c2f3b0c1aaedcda9f387fb067b9b073ef2c7be40ae1644397760f8702c3c5bac3cfdaec4b29506375326ee5471
$CDNENCFINISH_ADV2
.ENDS BEHAV_IBIAS


.SUBCKT BEHAV_ISNKMIR_3ISRC_1ISNK IIN IOUT0 IOUT1 IOUT2 IOUT3 DEN VDD VSS IVDD IVSS
$CDNENCSTART_ADV2
17f62b1fb318c25603aeb85644ae98a5d179ef807807791f6459efacb9d7ffc35a73a37243d4cce46a460e928d7c8f9c39ee99122a9d3f96f7d47fafa32ba578
c66a114150ca33a6f5231233f053c9dd6077121917a50b4bd57c6770d0fc453cf96e974201d8225b9172682f292e439bbf722e72cc8383f24b73fc1038a34e79
18f5312ba1d7284dbef83ccf5f60bb5ffc6b74ccb3c944ab337ed0baf91e23f00ec9342b51dbdf9c0890e73633d2a0bdcb8974ea1c77f981da4fbdc9c587f18a
e111c2a7aec3e4088342a6a17f7d3ef16113c426a90ca46c293260f00bd15a058002efc99e19b2c8e764a56aa3a8e6dbc656e6e83c752a3964616d46217c96bc
4b7ae4954cdb84e4074ca0b812afe13d5990712c8ab82c757cdbfbba993f6c801fae1fe4462b868412423be1f3182cc4fe5258584c170fcb5fdfaf98add13905
7c80f5d104695480a54673870b66e4b589703a920b6d483b439b85c656b94c4e0d9b34f08631d839eefdc09d9ecb7447615d8879a1191808bce44fff1d470c69
10b8a3df7ed0f553c0b18da55e0a73e4120b58b8330148e420f8da1702d209592f110c66ac782d6fceb67f26e8443224a3bae6e699b6fb984fa83e091e626c1a
969146a415d37b3945aa04f72f8849e289703a920b6d483b439b85c656b94c4ef1040e58b42f7c9d11e3a134c11d2f12615d8879a1191808bce44fff1d470c69
10b8a3df7ed0f553c0b18da55e0a73e4120b58b8330148e420f8da1702d209592f110c66ac782d6fceb67f26e8443224a3bae6e699b6fb984fa83e091e626c1a
8d8493b82c235c07436c0e798c56d7e989703a920b6d483b439b85c656b94c4e927e455fa372ec9e508fd04c0830a536615d8879a1191808bce44fff1d470c69
10b8a3df7ed0f553c0b18da55e0a73e4120b58b8330148e420f8da1702d209592f110c66ac782d6fceb67f26e8443224a3bae6e699b6fb984fa83e091e626c1a
5224515ac5410e9371be888b718e840ae5855dc586ceae448c3588b4fefd9ebdb0518224544d5b72ec86dde1c9143d85615d8879a1191808bce44fff1d470c69
10b8a3df7ed0f553c0b18da55e0a73e4120b58b8330148e420f8da1702d209592f110c66ac782d6fceb67f26e8443224a3bae6e699b6fb984fa83e091e626c1a
72b4d86a659952a9a1f8fdc86ddbe01bbe54a185d02368ee960e70b6cd3a1256160a04c39cd3473ab2325a953fd0723d8c824a146fc1e16d0a18cfbd2f121b9b
20a6b359758588d4d9d62202693b55b4c63baa79665544f5cde3162779921d8816dc3da02b1684f2cb55defd3b673b12476db77f1f311602d9ba860ea515c58d
e3b275c5cba4f501e595cb86dfcf4ae46157b12d4aef824874e5f68b206de526160a04c39cd3473ab2325a953fd0723d07370c783180cd39ae1f3b7d99ea9c97
20a6b359758588d4d9d62202693b55b4c63baa79665544f5cde3162779921d8894ffc7f7e0686b90924f7c0f2e033cc953463a0885e323a0ec52f8983f5d6bf4
ba6ff860da4a7b1953161750ec4bc380f9980d803a453232eb5661593dd28dfd160a04c39cd3473ab2325a953fd0723df25008398479bbc648177d1e74110774
20a6b359758588d4d9d62202693b55b4c63baa79665544f5cde3162779921d8894ffc7f7e0686b90924f7c0f2e033cc953463a0885e323a0ec52f8983f5d6bf4
004ebda7b3af78c7780c2207d1d7ab0212a483f59273173f893bef85e6ff77a5160a04c39cd3473ab2325a953fd0723d931a0dab4e640dd7ad3e2adce57585f7
20a6b359758588d4d9d62202693b55b4c63baa79665544f5cde3162779921d8894ffc7f7e0686b90924f7c0f2e033cc953463a0885e323a0ec52f8983f5d6bf4
8d0a0c55ba39eb000d313b782cba47e76bd2ab95a878d1fa9da7fb2e1c8a2cd5ed1235e971fd091cdc842572717d0327f27478dc38625a3c8aef02bec49c015e
27f8915165e8228fb78d4770f85804662f110c66ac782d6fceb67f26e8443224a5924526c72de94621b496f55a5cdbfeecf9a0e227deb9e8443c4c7bcc055bcc
1d3b21f0c5cfb1ec3c523f2ab24bba4642d2d0b8a2f007170cbdde09be837aaaad50ea1366dae1a426e9c6427cb1976fd2a49d570a465e3680e26dff01fad220
0c3bf6c1c80d969871a3f30ab67c9e8ce4591d4b07f4ec01c960439d1bc97568a90510cb7fd0548e7bd97dc2381c62c36f3de92dea23ece7e70986a7eba91892
2bee72d9a5570f971ec08f12bfcd8f3a1e04b6e79b9e82cf29c7ba026113745d619c122edc6122e2ce7c6ba536072725cb8974ea1c77f981da4fbdc9c587f18a
$CDNENCFINISH_ADV2
.ENDS BEHAV_ISNKMIR_3ISRC_1ISNK


.SUBCKT BEHAV_ISNKMIR_1ISRC IIN IOUT DEN VDD VSS IVDD IVSS PARAMS:arGain=45
$CDNENCSTART_ADV2
17f62b1fb318c25603aeb85644ae98a5d179ef807807791f6459efacb9d7ffc35a73a37243d4cce46a460e928d7c8f9c39ee99122a9d3f96f7d47fafa32ba578
c66a114150ca33a6f5231233f053c9dd6077121917a50b4bd57c6770d0fc453cf96e974201d8225b9172682f292e439bbf722e72cc8383f24b73fc1038a34e79
18f5312ba1d7284dbef83ccf5f60bb5ffc6b74ccb3c944ab337ed0baf91e23f00ec9342b51dbdf9c0890e73633d2a0bdcb8974ea1c77f981da4fbdc9c587f18a
e111c2a7aec3e4088342a6a17f7d3ef1720ecb8a7413268a9693e3ed8af8399dc004e5a1ebe91d352539564f862f38f540fdf39232d25d18278f96ba63a59879
7c80f5d104695480a54673870b66e4b589703a920b6d483b439b85c656b94c4e3e42b7806a35789a89204bdfcd029af4baaeac90cbbd2cde2263ee3c07423ef3
242bad8c74b3e2d12c435f11bcd7b9b5a36522818e99ebc7c691be6164d899ba5990712c8ab82c757cdbfbba993f6c80cb86852dc9e82fdf9320384923714685
0ad2a1e0d1ecb8b410280ca89efac5d70d48cef225dd6f5ca09d6f399fd401fa72ad585707de5754f63f2c90cfe87e0b9cfacd2da128b369ef26dc67f0357d98
b4971c49d2ccc6d8e43e930af28614cb1334916c1997def3a9b5d23188a960db3f9e8c274ccca4e93838fdf4ea64f2357abdbff7ec6b86f986bdb09d1bb06f31
3134905bbcd7c34234b51fab8b576d3153b50224970c369aaf0704ab7cb9a5e7e61d088c70436c7a67f7a4d4e1f712eb77f7caf506f7e0d28319ee03ec4b00e0
8d0a0c55ba39eb000d313b782cba47e76bd2ab95a878d1fa9da7fb2e1c8a2cd5ed1235e971fd091cdc842572717d0327f27478dc38625a3c8aef02bec49c015e
27f8915165e8228fb78d4770f85804662f110c66ac782d6fceb67f26e8443224a5924526c72de94621b496f55a5cdbfeecf9a0e227deb9e8443c4c7bcc055bcc
1d3b21f0c5cfb1ec3c523f2ab24bba4642d2d0b8a2f007170cbdde09be837aaa964b041299fcd545513261b72e77b03b14618c5fb7931aede6dbb61c164661be
22dc2ad01aef37b8f7f601fbf6b5b95c8016524b778b569ae4534cb4bbbf6f38bc9c9aab20b1012dd00e421908f716a5b6756e694b4cf8291f425ebcaa5a14e2
$CDNENCFINISH_ADV2
.ENDS BEHAV_ISNKMIR_1ISRC






.SUBCKT BEHAV_COMP_DEN VP VN DEN AVDD AVSS OUT
$CDNENCSTART_ADV2
17f62b1fb318c25603aeb85644ae98a5d179ef807807791f6459efacb9d7ffc35a73a37243d4cce46a460e928d7c8f9c39ee99122a9d3f96f7d47fafa32ba578
c66a114150ca33a6f5231233f053c9ddb1d84d0a8f08d2410e01231d7cac3dd8952bb5621ac2d5d3c71212ba90e984119db8a7ec5a41da9de3a58bb13d06f0a9
a81bfefd2faa7a21a7b82c80de8760c86476c1a6094a9980843d2d06b63db1f734477216e2652cc52103b4a5c6291c2e1c17b26ebad409233be5e2bb2a0a10fb
0c9418f49fde4590e8f8d91dee7c07952f110c66ac782d6fceb67f26e8443224a5924526c72de94621b496f55a5cdbfeecf9a0e227deb9e8443c4c7bcc055bcc
e111c2a7aec3e4088342a6a17f7d3ef1e16a196f94b13893041bc6c353e70c69d6791d362207c859e7858dd5df9738ef917e92b26114e98ed89a0f009cb49a8d
d8655c4e2b4ce3f2d2894ef285928da621e4fda21c9a75cd2cce11354f47e45e8bdf43a242d125a74fbf4eee289d70382d984e386040445165673abad035966c
ffd439da980ca9e75915e1ff16fc953d9cfeca020e1e1b9b89e5f50c398cac88ed29d10519112559ae26c63f9456f5af53463a0885e323a0ec52f8983f5d6bf4
685f449d8327ac7c103c8a997e84130de59f052cb54e6cd58a26f52025835bcd7ae4889385e121b6194f03967ca43cc2cc532c32af40e07a10794fec0ac97c94
$CDNENCFINISH_ADV2
.ENDS BEHAV_COMP_DEN


.SUBCKT BEHAV_VTHR VTHR DEN AVSS DVDD DVSS DOUT PARAMS:arVthr=1.65
$CDNENCSTART_ADV2
17f62b1fb318c25603aeb85644ae98a5d179ef807807791f6459efacb9d7ffc35a73a37243d4cce46a460e928d7c8f9c39ee99122a9d3f96f7d47fafa32ba578
c66a114150ca33a6f5231233f053c9dda7179a2106b30c9e5daa51001a3ee69fd57ee23295e7e52ccdf1a38a6a14ca97606b888de2392d61c12ab26e504f1637
e68feee095d5ebbf714759ae7b074c256a6a2c1d328ccb9d6cf35670b07716948afb2f7ad60c9b108a3091f4ece0ca3c89633a320f63931b7c4bb3afb6f75482
e111c2a7aec3e4088342a6a17f7d3ef1dcdb46c968c52a57eefb8a648f3c3f4c6d8e5231c766b466812a4d8d061743d106107970348240fef3b7e779b362fa17
8b8927e379db18bffabea9367a778b74b390e9e4956466817f909bc05e58fbe231291691a7c987be70e1a0ab1afed1e1ba13f6455bf5a70d9dd007915e0f941c
3fd0300256e589436344d787a6132768a875d8268f9a32ea28f8f736db5c7dff72ad585707de5754f63f2c90cfe87e0b9cfacd2da128b369ef26dc67f0357d98
$CDNENCFINISH_ADV2
.ENDS BEHAV_VTHR


.SUBCKT BEHAV_VTHR_HYST_VCC VTHR DEN AVSS DVDD DVSS DOUT
$CDNENCSTART_ADV2
17f62b1fb318c25603aeb85644ae98a5d179ef807807791f6459efacb9d7ffc35a73a37243d4cce46a460e928d7c8f9c39ee99122a9d3f96f7d47fafa32ba578
070fcbe348e3a9544c6c951abbf0b8c0c2a350c8d451c377a91c402c983cb2ac77b2a850d42d970bddc7c65a5af99439307b99e20afb2a443da9d1bb62fb4ea2
07bfb6416f30822a9171bb65340a518978672e93d15f1e66f5ee48e44e64a6834b84d714949a59adf777ab80358274cdf3ffab9f84d28ff69426991f7b0dae09
bf39f5b7c6802be4e4ec840bbbf484399eb894ad0142ea08aa2fe60d637e10e23353af67b6219257891953c8f6535ebfbe12423226ec76051bad6fd01dcf9fbd
d27d9dc9b88197217c2212ab81df9d8974e3f020f7e5d47ad118abc718d537656034e516c5836a16e885656f51451c81274cf8e6d57517eb1490869e4b5436ca
9216c8fc4efd8f2c74679cd785bd45fb73c3545cb6d858403ff0024577bc48df735309c791d5aa09ee6adb5a626e1a3742191a39f2e20de471dc73a7ae49af56
de1a2e79aa7ab97e58febefcb5a7abd0809b8c6f94b67724ba92e16c7ff0d9917bad274b5f322900523919d95ea8bcb15ac8dde1bcd47c73905ab640b81ea3fd
3fa7f1e1b3525d04ce3bbd66c0b137e49ee5961bcd4eea9905af16871ee62afee9d5a56d01cb61b4094d18d8a18bc274e9e47e341cacc546d72e2c9112edd848
0a498eed494beb832055a40c67743c11b7912ea957ad37eee73da6f8293f5b23687851bfe1db48737a1aefedf0971044c8f6b503bc92a2e4dc941566c86c6525
35bef3053e6e08ea6eee923b23670babe12306416ad9b24d601d696fcdb561ec41a4d43834a3d4741beed992a522f9a4fd08691fc3aff2876922ff2400ed9e91
e4f616c9bc00dd66e9e8afa17e73e7f1e61d088c70436c7a67f7a4d4e1f712eb83f7fba23a0ecf5de8fdb364d6d84aa6b0194d000b1144a78d0e154c02e5b88a
ebbe7f9cc3a15816b3027df325f826d5901636279bfed175a0b57b7a1b8e26749898b8ace15a6a074639e32a324dff5924a09615694433132fc87425b9ea0c03
96874dddb311c5a5e3abd7b33499d6754759d4446bb99218370e2cc3f1c1415a84c4b49ada2d60744278d8b15a1cdba9083e1303838ea23fad91feee7a3dc1ff
7f242847b94cfb72caad3a709f02cf07dcdb46c968c52a57eefb8a648f3c3f4c6601057589b5a2098249076844f8e30722ac2d311d066789866275f5a45135a9
286a76f1e875a46185643a4d9f2c97e1b390e9e4956466817f909bc05e58fbe231291691a7c987be70e1a0ab1afed1e1ba13f6455bf5a70d9dd007915e0f941c
8a148c7e2c90cc798fe030e76f591a69fc6ca8049868753be61d07ac56f1e9052ab4369818381bc7dfc8f232d22745e22404120b6aa5f1677b1b28fddae1e0d0
$CDNENCFINISH_ADV2
.ENDS BEHAV_VTHR_HYST_VCC


.SUBCKT BEHAV_VTHR_HYST_VFAULT VTHR DEN AVSS DVDD DVSS DOUT
$CDNENCSTART_ADV2
17f62b1fb318c25603aeb85644ae98a5d179ef807807791f6459efacb9d7ffc35a73a37243d4cce46a460e928d7c8f9c39ee99122a9d3f96f7d47fafa32ba578
070fcbe348e3a9544c6c951abbf0b8c0c2a350c8d451c377a91c402c983cb2ac77b2a850d42d970bddc7c65a5af99439307b99e20afb2a443da9d1bb62fb4ea2
07bfb6416f30822a9171bb65340a518978672e93d15f1e66f5ee48e44e64a6834b84d714949a59adf777ab80358274cdf3ffab9f84d28ff69426991f7b0dae09
bf39f5b7c6802be4e4ec840bbbf484399eb894ad0142ea08aa2fe60d637e10e23353af67b6219257891953c8f6535ebfbe12423226ec76051bad6fd01dcf9fbd
d27d9dc9b88197217c2212ab81df9d8974e3f020f7e5d47ad118abc718d537656034e516c5836a16e885656f51451c81274cf8e6d57517eb1490869e4b5436ca
9216c8fc4efd8f2c74679cd785bd45fb73c3545cb6d858403ff0024577bc48df735309c791d5aa09ee6adb5a626e1a3742191a39f2e20de471dc73a7ae49af56
de1a2e79aa7ab97e58febefcb5a7abd0809b8c6f94b67724ba92e16c7ff0d9917bad274b5f322900523919d95ea8bcb15ac8dde1bcd47c73905ab640b81ea3fd
3fa7f1e1b3525d04ce3bbd66c0b137e49ee5961bcd4eea9905af16871ee62afee9d5a56d01cb61b4094d18d8a18bc274e9e47e341cacc546d72e2c9112edd848
0a498eed494beb832055a40c67743c11b7912ea957ad37eee73da6f8293f5b23687851bfe1db48737a1aefedf0971044c8f6b503bc92a2e4dc941566c86c6525
35bef3053e6e08ea6eee923b23670babe12306416ad9b24d601d696fcdb561ec41a4d43834a3d4741beed992a522f9a4fd08691fc3aff2876922ff2400ed9e91
e4f616c9bc00dd66e9e8afa17e73e7f1e61d088c70436c7a67f7a4d4e1f712eb83f7fba23a0ecf5de8fdb364d6d84aa6b0194d000b1144a78d0e154c02e5b88a
ebbe7f9cc3a15816b3027df325f826d5901636279bfed175a0b57b7a1b8e26749898b8ace15a6a074639e32a324dff5924a09615694433132fc87425b9ea0c03
96874dddb311c5a5e3abd7b33499d6754759d4446bb99218370e2cc3f1c1415a84c4b49ada2d60744278d8b15a1cdba9083e1303838ea23fad91feee7a3dc1ff
7f242847b94cfb72caad3a709f02cf07dcdb46c968c52a57eefb8a648f3c3f4c98da52cd0095d34171cbe91aeb71e9b60a1a00bd304a38ffc40a259c6c596739
286a76f1e875a46185643a4d9f2c97e1b390e9e4956466817f909bc05e58fbe231291691a7c987be70e1a0ab1afed1e1ba13f6455bf5a70d9dd007915e0f941c
8a148c7e2c90cc798fe030e76f591a69891a0bbc4553512a1afa0b2e227228432ab4369818381bc7dfc8f232d22745e22404120b6aa5f1677b1b28fddae1e0d0
$CDNENCFINISH_ADV2
.ENDS BEHAV_VTHR_HYST_VFAULT


.SUBCKT BEHAV_VTHR_HYST_TEMP VTHR DEN AVSS DVDD DVSS DOUT
$CDNENCSTART_ADV2
17f62b1fb318c25603aeb85644ae98a5d179ef807807791f6459efacb9d7ffc35a73a37243d4cce46a460e928d7c8f9c39ee99122a9d3f96f7d47fafa32ba578
070fcbe348e3a9544c6c951abbf0b8c0c2a350c8d451c377a91c402c983cb2ac77b2a850d42d970bddc7c65a5af99439307b99e20afb2a443da9d1bb62fb4ea2
07bfb6416f30822a9171bb65340a518978672e93d15f1e66f5ee48e44e64a6834b84d714949a59adf777ab80358274cdf3ffab9f84d28ff69426991f7b0dae09
bf39f5b7c6802be4e4ec840bbbf484399eb894ad0142ea08aa2fe60d637e10e23353af67b6219257891953c8f6535ebfbe12423226ec76051bad6fd01dcf9fbd
d27d9dc9b88197217c2212ab81df9d8974e3f020f7e5d47ad118abc718d537656034e516c5836a16e885656f51451c81274cf8e6d57517eb1490869e4b5436ca
9216c8fc4efd8f2c74679cd785bd45fb73c3545cb6d858403ff0024577bc48df735309c791d5aa09ee6adb5a626e1a3742191a39f2e20de471dc73a7ae49af56
de1a2e79aa7ab97e58febefcb5a7abd0809b8c6f94b67724ba92e16c7ff0d9917bad274b5f322900523919d95ea8bcb15ac8dde1bcd47c73905ab640b81ea3fd
3fa7f1e1b3525d04ce3bbd66c0b137e49ee5961bcd4eea9905af16871ee62afee9d5a56d01cb61b4094d18d8a18bc274e9e47e341cacc546d72e2c9112edd848
0a498eed494beb832055a40c67743c11b7912ea957ad37eee73da6f8293f5b23687851bfe1db48737a1aefedf0971044c8f6b503bc92a2e4dc941566c86c6525
35bef3053e6e08ea6eee923b23670babe12306416ad9b24d601d696fcdb561ec41a4d43834a3d4741beed992a522f9a4fd08691fc3aff2876922ff2400ed9e91
e4f616c9bc00dd66e9e8afa17e73e7f1e61d088c70436c7a67f7a4d4e1f712eb83f7fba23a0ecf5de8fdb364d6d84aa6b0194d000b1144a78d0e154c02e5b88a
ebbe7f9cc3a15816b3027df325f826d5901636279bfed175a0b57b7a1b8e26749898b8ace15a6a074639e32a324dff5924a09615694433132fc87425b9ea0c03
96874dddb311c5a5e3abd7b33499d6754759d4446bb99218370e2cc3f1c1415a84c4b49ada2d60744278d8b15a1cdba9083e1303838ea23fad91feee7a3dc1ff
7f242847b94cfb72caad3a709f02cf07dcdb46c968c52a57eefb8a648f3c3f4ce3a2fcda99763e8f5feb8466203051ec726907731c684bf4041dbdb5b1366b7c
286a76f1e875a46185643a4d9f2c97e1b390e9e4956466817f909bc05e58fbe231291691a7c987be70e1a0ab1afed1e1ba13f6455bf5a70d9dd007915e0f941c
8a148c7e2c90cc798fe030e76f591a693261320e118c1ecf656c1256caa7211dd2b2654ddcf71970d3ad791b6526020dff193fce00ecb2adfc1098edcebce9ee
$CDNENCFINISH_ADV2
.ENDS BEHAV_VTHR_HYST_TEMP


.SUBCKT BEHAV_TEMP_GEN VDD VSS ILED IOUT TEMP PARAMS:arTheta_j=90 arAmbientTemp=25
$CDNENCSTART_ADV2
17f62b1fb318c25603aeb85644ae98a5d179ef807807791f6459efacb9d7ffc35a73a37243d4cce46a460e928d7c8f9c39ee99122a9d3f96f7d47fafa32ba578
2fe021ee4920ebc0b15ff7bc901583a16bd2ab95a878d1fa9da7fb2e1c8a2cd5ed1235e971fd091cdc842572717d0327f27478dc38625a3c8aef02bec49c015e
f2737d807680651bc4aaee489ce727106bd2ab95a878d1fa9da7fb2e1c8a2cd5ed1235e971fd091cdc842572717d0327f27478dc38625a3c8aef02bec49c015e
20e3127dc65b7b7088269d46b21b6d3d7ea72c4a8ac3011af5050e135dffb8e65035f1af2bb2fef9cba31d6e23f4c9fa95ef1cbc3c67448644ba7243bd85d0e1
c27d03acf02f663db9ba018ec7a6c63908bca835f546932742dafd516544d61f1732065b80b68024a1bba46fc2caacfac93a5252cd67fb4d7d9f8782895f6c72
163c6c82d00fe2c1e829286bb831e6b66bd2ab95a878d1fa9da7fb2e1c8a2cd5ed1235e971fd091cdc842572717d0327f27478dc38625a3c8aef02bec49c015e
0fdfc09ce687efe1350bfb1632a911a6d3dc8eb83089096224bd86f96386d75c72ad585707de5754f63f2c90cfe87e0b9cfacd2da128b369ef26dc67f0357d98
$CDNENCFINISH_ADV2
.ENDS BEHAV_TEMP_GEN


.SUBCKT OPAMP_SLEW AVP AVN ENA PWM AVDD AVSS DVDD DVSS VOUT
$CDNENCSTART_ADV2
17f62b1fb318c25603aeb85644ae98a5d179ef807807791f6459efacb9d7ffc35a73a37243d4cce46a460e928d7c8f9c39ee99122a9d3f96f7d47fafa32ba578
c66a114150ca33a6f5231233f053c9ddb1d84d0a8f08d2410e01231d7cac3dd80cb67ca54386e5c762431757c65d98e1606b888de2392d61c12ab26e504f1637
b37bb30e1d4328b5b13665e742fcb5d0d65eedb57cd472315ba0d271a55f2b2b9d4160c7645f4c0c8c34982bb35bfaf62404120b6aa5f1677b1b28fddae1e0d0
8cde6e01a4f84ee59858e809083c79d12085c43b8c2037a1981f1ca91878ba99b93f44e00318e3a3b7db66fb4181fc8be04661ee30e54a9fbb7d0d475676d026
601836f2c6cf73614c0e6409ac4c1cb902ef45c075118dd80727e8557ae9017b7116a0d19717966140c3f17e07580cc102fbe9494701ceb155e913e1116d65e1
a2e012f6ec7f535428cdc24a21c0a82e6fa596fad0b4d0b1c0484e60a58dd0477116a0d19717966140c3f17e07580cc102fbe9494701ceb155e913e1116d65e1
3ad54d7a4d31de15e280c6f45c4fce6287415cdb834209ba8ff75cb8c7e6f6799ccd286a6f54934d896608d2d7bedc2092957e5f766aa67e6a427aa1bfcc0a59
327553efc10baec99d9927b4623f99d02de2f44147c41760d876d8c12dbe1def7ea72c4a8ac3011af5050e135dffb8e6de0f41579f9d1603ed0b260a508d2ca0


f6f18544cbcbbf35ea93c54cc05b700879492c73dac52ddaf0022e9e6a0b5ea2e61d088c70436c7a67f7a4d4e1f712eb77f7caf506f7e0d28319ee03ec4b00e0
64890e15247841c63e77f51bae1e2e7399f0b56ee43fc61870400e101d7cf1fede78dff9bfcad1fe8e9bedca6029d2c651a4b925629e624ec8cac3ae47d95c94
b9af1d4ae47007a9853568c4895394f352f641679f389b3d04b313efd73ced167116a0d19717966140c3f17e07580cc102fbe9494701ceb155e913e1116d65e1
94d027b174c1013b00f8a4698dfb178a051cef927d34a8e72560b8c7bff7467d72ad585707de5754f63f2c90cfe87e0b9cfacd2da128b369ef26dc67f0357d98
224d7b556ffb1bbacfe5d2ed6193b3c330f0d5fc5b8e9fadc0b060661b8ee26d72ad585707de5754f63f2c90cfe87e0b9cfacd2da128b369ef26dc67f0357d98
68911a8b7526ae5fd35116eb69d2844f5f1643c14e02ef9bd153a39d7db89bb1e61d088c70436c7a67f7a4d4e1f712eb77f7caf506f7e0d28319ee03ec4b00e0
0dcbada07dcada0540e2dc1911a5c4a318de7239899f2d708e17eb2d98ab9ef0de78dff9bfcad1fe8e9bedca6029d2c651a4b925629e624ec8cac3ae47d95c94


685f449d8327ac7c103c8a997e84130db4ec68f21c9213a28e705f5db20b6f8d72ad585707de5754f63f2c90cfe87e0b9cfacd2da128b369ef26dc67f0357d98
$CDNENCFINISH_ADV2
.ENDS OPAMP_SLEW


.SUBCKT BEHAV_REFSYS_FUSE VDD VSS SEL_5PIN_EN SEL_5PIN_VF SEL_8PIN_EN AWAKE PARAMS:ar5PinEn=0 ar5PinVf=0 ar8PinEn=0
$CDNENCSTART_ADV2
17f62b1fb318c25603aeb85644ae98a5d179ef807807791f6459efacb9d7ffc35a73a37243d4cce46a460e928d7c8f9c39ee99122a9d3f96f7d47fafa32ba578
c66a114150ca33a6f5231233f053c9dd8598ba0f60b3ca4f8a0b372f0d8906feb71bc76e5d2c01eaf5b3ed4df3244a7b293bdd7a1068dbe152b6802ea66d59b0
e111c2a7aec3e4088342a6a17f7d3ef1720ecb8a7413268a9693e3ed8af8399d71b773df1858f1bcc713e037d3d60749ba13f6455bf5a70d9dd007915e0f941c